42
Coordinates from ORCA-job 539_neut_opt_freq E -1000.013300087323
  C          -0.00000428384853      3.61156531419156     -0.00001484116729
  C           1.22932253990188      2.88922724032314     -0.00001318205658
  C           1.19852512591456      1.47492861381431     -0.00005622716013
  C          -0.00001729560504      0.74792152686084     -0.00008435952087
  C          -1.19855929749570      1.47494063945928     -0.00010248239715
  C          -1.22933986122083      2.88924409717856     -0.00006216760904
  C          -2.44483982607394      3.61821201755617     -0.00005449824580
  C          -2.43971872683343      5.00904036377711     -0.00000620068127
  C          -1.24383833150679      5.71833318071173      0.00003830452802
  C           0.00000371141054      5.03902375292365      0.00003537763994
  C           1.24385293493146      5.71831467913067      0.00008071487100
  C           2.43972331579316      5.00900450980757      0.00007953357546
  C           2.44482959396578      3.61817886159739      0.00003552493665
  H          -2.15287964729494      0.96496951297355     -0.00013660940275
  H          -3.38498462401704      3.07688190995378     -0.00008696529797
  H          -3.38179033864308      5.54718508180565     -0.00000231281355
  H          -1.25165909810919      6.80286464230295      0.00008026879803
  H           1.25168499728456      6.80287781039384      0.00012082543291
  H           3.38179655172813      5.54714061618860      0.00011218702410
  H           3.38490419946391      3.07688026685982      0.00003328872944
  H           2.15287472852628      0.96492041653591     -0.00006139610294
  C          -0.00000000488900     -3.61154328260902     -0.00001125618060
  C          -1.22933344442005     -2.88921855082764     -0.00000787437662
  C          -1.19855752267430     -1.47492096388060     -0.00003187872645
  C          -0.00000753878840     -0.74789438703060     -0.00007440325596
  C           1.19855002797250     -1.47491683149098     -0.00007278308477
  C           1.22933113802178     -2.88921379892203     -0.00005453888256
  C           2.44483835544195     -3.61817182992208     -0.00005955203503
  C           2.43972627178624     -5.00899967032431     -0.00001195515858
  C           1.24385163817515     -5.71830420079791      0.00003282215915
  C           0.00000382079457     -5.03900523420335      0.00003406765710
  C          -1.24384043174569     -5.71831036744242      0.00008009940765
  C          -2.43971512921830     -5.00900696823768      0.00007760800578
  C          -2.44483595488915     -3.61818143255712      0.00003157691082
  H           2.15259509254778     -0.96520488286039     -0.00009183415958
  H           3.38519991842162     -3.07669942687922     -0.00008148956403
  H           3.38161430154968     -5.54703699509927     -0.00000956787669
  H           1.25168491834970     -6.80308111614972      0.00007468318228
  H          -1.25167282386958     -6.80311196712629      0.00011541604040
  H          -3.38154326015845     -5.54701427137059      0.00011458808696
  H          -3.38520659387595     -3.07671561421580      0.00002580782722
  H          -2.15270076680386     -0.96513663239906     -0.00001431905669
